@<TRIPOS>MOLECULE
benzamidine.pdb
 18 18 0 0 0
SMALL
GASTEIGER

@<TRIPOS>ATOM
      1  C          0.0000    0.0000   -0.1700 C.ar    1  MOL1        0.0608
      2  C2         0.0070    1.2100    0.5230 C.ar    1  MOL1       -0.0470
      3  C3         0.0000    1.2050    1.9040 C.ar    1  MOL1       -0.0610
      4  C4         0.0000    0.0000    2.5920 C.ar    1  MOL1       -0.0617
      5  C5         0.0000   -1.2050    1.9040 C.ar    1  MOL1       -0.0610
      6  C6        -0.0070   -1.2100    0.5230 C.ar    1  MOL1       -0.0470
      7  C7         0.0000    0.0000   -1.6430 C.2     1  MOL1        0.2662
      8  H         -0.0190    2.1460   -0.0060 H       1  MOL1        0.0626
      9  H9        -0.0110    2.1340    2.4420 H       1  MOL1        0.0618
     10  H10        0.0000    0.0000    3.6660 H       1  MOL1        0.0618
     11  H11        0.0110   -2.1340    2.4420 H       1  MOL1        0.0618
     12  H12        0.0190   -2.1460   -0.0060 H       1  MOL1        0.0626
     13  N         -0.7410   -0.8640   -2.2960 N.pl3   1  MOL1       -0.2497
     14  N14        0.7410    0.8640   -2.2960 N.2     1  MOL1       -0.2884
     15  H15        0.7210    0.9470   -3.2910 H       1  MOL1        0.3009
     16  H16        1.4040    1.4270   -1.8080 H       1  MOL1        0.3009
     17  H17       -1.4040   -1.4270   -1.8080 H       1  MOL1        0.2883
     18  H18       -0.7210   -0.9470   -3.2910 H       1  MOL1        0.2883
@<TRIPOS>BOND
     1    18    13    1
     2    15    14    1
     3    14    16    1
     4    14     7    2
     5    13    17    1
     6    13     7    1
     7     7     1    1
     8     1     6   ar
     9     1     2   ar
    10     8     2    1
    11    12     6    1
    12     6     5   ar
    13     2     3   ar
    14     5    11    1
    15     5     4   ar
    16     3     9    1
    17     3     4   ar
    18     4    10    1
