@<TRIPOS>MOLECULE
MOL
   18    18     1     0     0
SMALL
No Charge or Current Charge


@<TRIPOS>ATOM
      1 C           0.0000    0.0000   -0.1700 ca        1 MOL      0.000000
      2 C2          0.0070    1.2100    0.5230 ca        1 MOL      0.000000
      3 C3          0.0000    1.2050    1.9040 ca        1 MOL      0.000000
      4 C4          0.0000    0.0000    2.5920 ca        1 MOL      0.000000
      5 C5          0.0000   -1.2050    1.9040 ca        1 MOL      0.000000
      6 C6         -0.0070   -1.2100    0.5230 ca        1 MOL      0.000000
      7 C7          0.0000    0.0000   -1.6430 ce        1 MOL      0.000000
      8 H          -0.0190    2.1460   -0.0060 ha        1 MOL      0.000000
      9 H9         -0.0110    2.1340    2.4420 ha        1 MOL      0.000000
     10 H10         0.0000    0.0000    3.6660 ha        1 MOL      0.000000
     11 H11         0.0110   -2.1340    2.4420 ha        1 MOL      0.000000
     12 H12         0.0190   -2.1460   -0.0060 ha        1 MOL      0.000000
     13 N          -0.7410   -0.8640   -2.2960 nh        1 MOL      0.000000
     14 N14         0.7410    0.8640   -2.2960 nh        1 MOL      0.000000
     15 H15         0.7210    0.9470   -3.2910 hn        1 MOL      0.000000
     16 H16         1.4040    1.4270   -1.8080 hn        1 MOL      0.000000
     17 H17        -1.4040   -1.4270   -1.8080 hn        1 MOL      0.000000
     18 H18        -0.7210   -0.9470   -3.2910 hn        1 MOL      0.000000
@<TRIPOS>BOND
     1    1    2 ar  
     2    1    6 ar  
     3    1    7 1   
     4    2    3 ar  
     5    2    8 1   
     6    3    4 ar  
     7    3    9 1   
     8    4    5 ar  
     9    4   10 1   
    10    5    6 ar  
    11    5   11 1   
    12    6   12 1   
    13    7   13 2   
    14    7   14 1   
    15   13   17 1   
    16   13   18 1   
    17   14   15 1   
    18   14   16 1   
@<TRIPOS>SUBSTRUCTURE
     1 MOL         1 TEMP              0 ****  ****    0 ROOT
